Version 4
SHEET 1 2100 1400
WIRE 80 216 220 216
WIRE 80 296 220 296
WIRE 220 216 220 432
WIRE 220 296 220 592
WIRE 220 432 420 432
WIRE 220 592 420 592
WIRE 420 432 520 432
WIRE 420 432 420 424
WIRE 420 424 796 424
WIRE 420 592 520 592
WIRE 420 592 420 584
WIRE 420 584 796 584
WIRE 584 432 584 592
WIRE 860 584 860 424
WIRE 584 432 1156 432
WIRE 1156 432 1156 456
WIRE 584 432 1276 432
WIRE 1276 432 1276 456
WIRE 860 584 1156 584
WIRE 1156 584 1156 536
WIRE 860 584 1276 584
WIRE 1276 584 1276 520
WIRE 860 584 1396 584
WIRE 1396 584 1396 600
WIRE 1276 456 1396 456
WIRE 1396 600 1516 600
FLAG 1396 456 outp
FLAG 1516 600 outn
FLAG 1396 680 0
SYMBOL voltage 80 200 R0
SYMATTR InstName V1
SYMATTR Value SINE(0 12 50)
SYMBOL diode 520 416 M90
SYMATTR InstName D1
SYMBOL diode 520 576 M90
SYMATTR InstName D2
SYMBOL diode 860 440 M270
SYMATTR InstName D3
SYMBOL diode 860 600 M270
SYMATTR InstName D4
SYMBOL res 1140 440 R0
SYMATTR InstName R1
SYMATTR Value 1k
SYMBOL cap 1260 456 R0
SYMATTR InstName C1
SYMATTR Value 100u
SYMBOL res 1380 584 R0
SYMATTR InstName Rbleed
SYMATTR Value 1Meg
TEXT 48 1160 Left 2 !.tran 0 120m 0 100u
TEXT 48 1184 Left 2 !.op
