Version 4
SHEET 1 1800 1100
WIRE 120 276 260 276
WIRE 120 356 260 356
WIRE 260 276 340 276
WIRE 340 276 340 212
WIRE 260 276 260 204
WIRE 260 204 496 204
WIRE 260 356 340 356
WIRE 340 356 340 372
WIRE 260 356 260 364
WIRE 260 364 496 364
WIRE 404 212 404 372
WIRE 404 212 756 212
WIRE 756 212 756 236
WIRE 404 212 836 212
WIRE 836 212 836 220
WIRE 560 364 560 204
WIRE 560 364 756 364
WIRE 756 364 756 316
WIRE 560 364 836 364
WIRE 836 364 836 284
WIRE 560 364 916 364
WIRE 916 364 916 380
WIRE 836 220 928 220
WIRE 916 380 1008 380
FLAG 120 276 acp
FLAG 120 356 acn
FLAG 928 220 outp
FLAG 1008 380 outn
FLAG 916 460 0
SYMBOL voltage 120 260 R0
SYMATTR InstName V1
SYMATTR Value SINE(0 12 50)
SYMBOL diode 340 196 M90
SYMATTR InstName D1
SYMATTR Value DB
SYMBOL diode 340 356 M90
SYMATTR InstName D2
SYMATTR Value DB
SYMBOL diode 560 220 M270
SYMATTR InstName D3
SYMATTR Value DB
SYMBOL diode 560 380 M270
SYMATTR InstName D4
SYMATTR Value DB
SYMBOL res 740 220 R0
SYMATTR InstName R1
SYMATTR Value 1k
SYMBOL cap 820 220 R0
SYMATTR InstName C1
SYMATTR Value 100u
SYMBOL res 900 364 R0
SYMATTR InstName Rbleed
SYMATTR Value 1Meg
TEXT 48 860 Left 2 !.model DB D
TEXT 48 884 Left 2 !.tran 0 120m 0 100u
TEXT 48 908 Left 2 !.op
