Version 4
SHEET 1 1800 1100
WIRE 284 196 484 196
WIRE 284 324 484 324
WIRE 484 196 636 196
WIRE 484 196 716 196
WIRE 716 196 716 180
WIRE 636 276 636 324
WIRE 636 324 484 324
WIRE 716 244 716 324
WIRE 716 324 484 324
WIRE 796 324 484 324
FLAG 140 236 acp
FLAG 140 316 acn
FLAG 284 260 acp
FLAG 484 260 acn
FLAG 284 196 outp
FLAG 284 324 outn
FLAG 796 404 0
SYMBOL voltage 140 220 R0
SYMATTR InstName V1
SYMATTR Value SINE(0 12 50)
SYMBOL diode 300 260 R180
SYMATTR InstName D1
SYMATTR Value DBRIDGE
SYMBOL diode 500 260 R180
SYMATTR InstName D2
SYMATTR Value DBRIDGE
SYMBOL diode 300 324 R180
SYMATTR InstName D3
SYMATTR Value DBRIDGE
SYMBOL diode 500 324 R180
SYMATTR InstName D4
SYMATTR Value DBRIDGE
SYMBOL res 620 180 R0
SYMATTR InstName R1
SYMATTR Value 1k
SYMBOL cap 700 180 R0
SYMATTR InstName C1
SYMATTR Value 100u
SYMBOL res 780 308 R0
SYMATTR InstName Rbleed
SYMATTR Value 1Meg
TEXT 48 860 Left 2 !.model DBRIDGE D
TEXT 48 884 Left 2 !.tran 0 120m 0 100u
TEXT 48 908 Left 2 !.op
