Version 4
SHEET 1 1600 1000
WIRE 900 116 776 116
WIRE 776 116 776 156
WIRE 776 236 776 220
WIRE 776 220 668 220
WIRE 668 220 876 220
WIRE 668 316 776 316
WIRE 160 256 620 256
WIRE 620 256 620 300
FLAG 900 116 vdd
FLAG 160 256 in
FLAG 668 220 out
FLAG 668 316 src
FLAG 900 196 0
FLAG 160 336 0
FLAG 776 396 0
FLAG 876 300 0
SYMBOL voltage 900 100 R0
SYMATTR InstName VDD
SYMATTR Value 12
SYMBOL voltage 160 240 R0
SYMATTR InstName VIN
SYMATTR Value SINE(2.2 0.1 1k)
SYMBOL res 760 140 R0
SYMATTR InstName RD
SYMATTR Value 2k
SYMBOL nmos 620 220 R0
SYMATTR InstName M1
SYMATTR Value NMOSL
SYMBOL res 760 300 R0
SYMATTR InstName RS
SYMATTR Value 220
SYMBOL res 860 204 R0
SYMATTR InstName RL
SYMATTR Value 10k
TEXT 48 820 Left 2 !.model NMOSL NMOS (VTO=2 KP=2m)
TEXT 48 844 Left 2 !.tran 0 20m 0 10u
TEXT 48 868 Left 2 !.op
