Version 4
SHEET 1 1600 1000
WIRE 180 340 620 340
WIRE 860 180 668 180
WIRE 668 260 788 260
WIRE 668 260 740 260
FLAG 860 180 vdd
FLAG 180 340 in
FLAG 740 260 out
FLAG 668 356 src
FLAG 860 260 0
FLAG 180 420 0
FLAG 668 436 0
FLAG 788 340 0
SYMBOL voltage 860 164 R0
SYMATTR InstName VDD
SYMATTR Value 12
SYMBOL voltage 180 324 R0
SYMATTR InstName VIN
SYMATTR Value SINE(2.2 0.1 1k)
SYMBOL nmos 620 260 R0
SYMATTR InstName M1
SYMATTR Value NMOSL
SYMBOL res 652 164 R0
SYMATTR InstName RD
SYMATTR Value 2k
SYMBOL res 652 340 R0
SYMATTR InstName RS
SYMATTR Value 220
SYMBOL res 772 244 R0
SYMATTR InstName RL
SYMATTR Value 10k
TEXT 48 820 Left 2 !.model NMOSL NMOS (VTO=2 KP=2m)
TEXT 48 844 Left 2 !.tran 0 20m 0 10u
TEXT 48 868 Left 2 !.op
