Version 4
SHEET 1 2000 1300
WIRE 200 436 420 436
WIRE 484 436 980 436
WIRE 980 436 980 388
WIRE 776 336 776 388
WIRE 776 388 980 388
WIRE 776 396 776 388
WIRE 1056 316 1044 316
WIRE 1044 316 1044 340
WIRE 1044 340 1160 340
WIRE 1224 340 1236 340
WIRE 1044 436 1056 436
WIRE 1056 436 1056 476
WIRE 1460 236 1056 236
WIRE 1460 236 1460 256
WIRE 1460 256 776 256
WIRE 1236 340 1344 340
FLAG 200 436 in
FLAG 1344 340 out
FLAG 200 516 0
FLAG 1460 316 0
FLAG 776 476 0
FLAG 1056 556 0
FLAG 1236 420 0
SYMBOL voltage 200 420 R0
SYMATTR InstName VIN
SYMATTR Value SINE(0 0.02 1k)
SYMBOL cap 420 420 M90
SYMATTR InstName CIN
SYMATTR Value 100n
SYMBOL npn 980 340 R0
SYMATTR InstName Q1
SYMATTR Value 2N3904
SYMBOL res 760 240 R0
SYMATTR InstName R1
SYMATTR Value 100k
SYMBOL res 760 380 R0
SYMATTR InstName R2
SYMATTR Value 22k
SYMBOL res 1040 220 R0
SYMATTR InstName RC
SYMATTR Value 4.7k
SYMBOL res 1040 460 R0
SYMATTR InstName RE
SYMATTR Value 1k
SYMBOL cap 1160 324 M90
SYMATTR InstName COUT
SYMATTR Value 1u
SYMBOL res 1220 324 R0
SYMATTR InstName RL
SYMATTR Value 10k
SYMBOL voltage 1460 220 R0
SYMATTR InstName VCC
SYMATTR Value 12
TEXT 48 1080 Left 2 !.model 2N3904 NPN
TEXT 48 1104 Left 2 !.tran 0 20m 0 10u
TEXT 48 1128 Left 2 !.op
