Version 4
SHEET 1 1800 1100
WIRE 200 356 760 356
WIRE 760 356 760 380
WIRE 1200 216 836 216
WIRE 836 296 808 296
WIRE 808 296 808 300
WIRE 808 396 836 396
WIRE 836 396 836 436
WIRE 808 300 996 300
WIRE 808 300 900 300
FLAG 200 356 in
FLAG 900 300 out
FLAG 808 396 src
FLAG 200 436 0
FLAG 1200 296 0
FLAG 836 516 0
FLAG 996 380 0
SYMBOL voltage 200 340 R0
SYMATTR InstName VIN
SYMATTR Value SINE(2.2 0.1 1k)
SYMBOL nmos 760 300 R0
SYMATTR InstName M1
SYMATTR Value NMOSL
SYMBOL res 820 200 R0
SYMATTR InstName RD
SYMATTR Value 2k
SYMBOL res 820 420 R0
SYMATTR InstName RS
SYMATTR Value 220
SYMBOL res 980 284 R0
SYMATTR InstName RL
SYMATTR Value 10k
SYMBOL voltage 1200 200 R0
SYMATTR InstName VDD
SYMATTR Value 12
TEXT 48 900 Left 2 !.model NMOSL NMOS (VTO=2 KP=2m)
TEXT 48 924 Left 2 !.tran 0 20m 0 10u
TEXT 48 948 Left 2 !.op
