Version 4
SHEET 1 2000 1300
WIRE 200 396 400 396
WIRE 464 396 760 396
WIRE 760 396 760 348
WIRE 760 348 920 348
WIRE 760 316 760 348
WIRE 984 276 984 300
WIRE 984 300 1060 300
WIRE 1240 196 984 196
WIRE 1240 196 1240 236
WIRE 1240 236 760 236
WIRE 1124 300 1244 300
FLAG 200 396 in
FLAG 1244 300 out
FLAG 1240 196 vcc
FLAG 200 476 0
FLAG 1240 276 0
FLAG 760 428 0
FLAG 984 476 0
FLAG 1124 380 0
SYMBOL voltage 200 380 R0
SYMATTR InstName VIN
SYMATTR Value SINE(0 0.02 1k)
SYMBOL cap 400 380 M90
SYMATTR InstName CIN
SYMATTR Value 100n
SYMBOL npn 920 300 R0
SYMATTR InstName Q1
SYMATTR Value 2N3904
SYMBOL res 744 220 R0
SYMATTR InstName R1
SYMATTR Value 100k
SYMBOL res 744 332 R0
SYMATTR InstName R2
SYMATTR Value 22k
SYMBOL res 968 180 R0
SYMATTR InstName RC
SYMATTR Value 4.7k
SYMBOL res 968 380 R0
SYMATTR InstName RE
SYMATTR Value 1k
SYMBOL cap 1060 284 M90
SYMATTR InstName COUT
SYMATTR Value 1u
SYMBOL res 1108 284 R0
SYMATTR InstName RL
SYMATTR Value 10k
SYMBOL voltage 1240 180 R0
SYMATTR InstName VCC
SYMATTR Value 12
TEXT 48 1040 Left 2 !.model 2N3904 NPN
TEXT 48 1064 Left 2 !.tran 0 20m 0 10u
TEXT 48 1088 Left 2 !.op
