Version 4
SHEET 1 1700 1100
WIRE 920 116 776 116
WIRE 776 116 776 156
WIRE 776 116 536 116
WIRE 536 116 536 156
WIRE 776 236 776 260
WIRE 776 260 704 260
WIRE 704 260 740 260
WIRE 804 260 916 260
WIRE 704 356 776 356
WIRE 536 236 536 308
WIRE 536 308 640 308
WIRE 160 276 280 276
WIRE 344 276 536 276
WIRE 536 276 536 236
FLAG 920 116 vcc
FLAG 160 276 in
FLAG 804 260 out
FLAG 640 308 vb
FLAG 704 260 vc
FLAG 704 356 ve
FLAG 920 196 0
FLAG 160 356 0
FLAG 536 316 0
FLAG 776 436 0
FLAG 916 340 0
SYMBOL voltage 920 100 R0
SYMATTR InstName VCC
SYMATTR Value 12
SYMBOL voltage 160 260 R0
SYMATTR InstName VIN
SYMATTR Value SINE(0 0.02 1k)
SYMBOL res 520 140 R0
SYMATTR InstName R1
SYMATTR Value 100k
SYMBOL res 520 220 R0
SYMATTR InstName R2
SYMATTR Value 22k
SYMBOL res 760 140 R0
SYMATTR InstName RC
SYMATTR Value 4.7k
SYMBOL res 760 340 R0
SYMATTR InstName RE
SYMATTR Value 1k
SYMBOL cap 280 260 M90
SYMATTR InstName CIN
SYMATTR Value 100n
SYMBOL npn 640 260 R0
SYMATTR InstName Q1
SYMATTR Value 2N3904
SYMBOL cap 740 244 M90
SYMATTR InstName COUT
SYMATTR Value 1u
SYMBOL res 900 244 R0
SYMATTR InstName RL
SYMATTR Value 10k
TEXT 48 860 Left 2 !.model 2N3904 NPN
TEXT 48 884 Left 2 !.tran 0 20m 0 10u
TEXT 48 908 Left 2 !.op
