Version 4
SHEET 1 1300 900
WIRE 120 156 240 156
WIRE 304 156 376 156
WIRE 304 156 476 156
FLAG 120 156 in
FLAG 304 156 out
FLAG 120 236 0
FLAG 376 236 0
FLAG 476 220 0
SYMBOL voltage 120 140 R0
SYMATTR InstName V1
SYMATTR Value SINE(0 10 50)
SYMBOL diode 240 140 M90
SYMATTR InstName D1
SYMATTR Value DIO
SYMBOL res 360 140 R0
SYMATTR InstName R1
SYMATTR Value 1k
SYMBOL cap 460 156 R0
SYMATTR InstName C1
SYMATTR Value 100u
TEXT 48 760 Left 2 !.model DIO D
TEXT 48 784 Left 2 !.tran 0 120m 0 100u
TEXT 48 808 Left 2 !.op
