Version 4
SHEET 1 1400 950
WIRE 140 236 320 236
WIRE 384 236 516 236
WIRE 384 236 636 236
WIRE 384 236 468 236
FLAG 140 236 in
FLAG 468 236 out
FLAG 140 316 0
FLAG 516 316 0
FLAG 636 300 0
SYMBOL voltage 140 220 R0
SYMATTR InstName V1
SYMATTR Value SINE(0 10 50)
SYMBOL diode 320 220 M90
SYMATTR InstName D1
SYMATTR Value DIO
SYMBOL res 500 220 R0
SYMATTR InstName R1
SYMATTR Value 1k
SYMBOL cap 620 236 R0
SYMATTR InstName C1
SYMATTR Value 100u
TEXT 48 800 Left 2 !.model DIO D
TEXT 48 824 Left 2 !.tran 0 120m 0 100u
TEXT 48 848 Left 2 !.op
