Version 4
SHEET 1 1500 1000
WIRE 160 196 296 196
WIRE 376 196 376 228
WIRE 376 228 608 228
WIRE 672 164 672 228
WIRE 672 228 608 228
WIRE 860 156 640 156
WIRE 640 156 640 212
WIRE 860 336 640 336
WIRE 640 336 640 276
FLAG 160 196 in
FLAG 672 244 out
FLAG 608 260 0
FLAG 160 276 0
FLAG 860 236 0
FLAG 860 416 0
FLAG 860 156 vcc
FLAG 860 336 vee
FLAG 608 228 ninv
SYMBOL voltage 160 180 R0
SYMATTR InstName Vin
SYMATTR Value AC 1
SYMBOL res 280 180 M90
SYMATTR InstName Rin
SYMATTR Value 1k
SYMBOL res 656 148 R0
SYMATTR InstName Rf
SYMATTR Value 10k
SYMBOL opamp2 640 180 R0
SYMATTR InstName XU1
SYMATTR Value opamp2
SYMBOL voltage 860 140 R0
SYMATTR InstName VCC
SYMATTR Value 10
SYMBOL voltage 860 320 R0
SYMATTR InstName VEE
SYMATTR Value -10
TEXT 48 820 Left 2 !.ac dec 30 10 1e6
TEXT 48 844 Left 2 !.op
