Version 4
SHEET 1 1900 1200
WIRE 220 336 436 336
WIRE 516 336 828 336
WIRE 828 336 828 284
WIRE 828 284 828 196
WIRE 828 196 776 196
WIRE 892 300 892 196
WIRE 892 196 856 196
WIRE 1280 268 860 268
WIRE 1280 332 860 332
WIRE 892 300 1012 300
FLAG 220 336 in
FLAG 1012 300 out
FLAG 828 316 0
FLAG 220 416 0
FLAG 1280 348 0
FLAG 1280 412 0
SYMBOL voltage 220 320 R0
SYMATTR InstName Vin
SYMATTR Value AC 1
SYMBOL res 420 320 M90
SYMATTR InstName Rin
SYMATTR Value 1k
SYMBOL UniversalOpAmp2 860 300 R0
SYMATTR InstName U1
SYMATTR Value UniversalOpamp2
SYMBOL res 760 180 M90
SYMATTR InstName Rf
SYMATTR Value 10k
SYMBOL voltage 1280 252 R0
SYMATTR InstName VCC
SYMATTR Value 10
SYMBOL voltage 1280 316 R0
SYMATTR InstName VEE
SYMATTR Value -10
TEXT 48 1000 Left 2 !.ac dec 30 10 1e6
TEXT 48 1024 Left 2 !.op
