Version 4
SHEET 1 1800 1200
WIRE 220 316 376 316
WIRE 456 316 636 316
WIRE 636 316 728 316
WIRE 792 332 792 236
WIRE 792 236 636 236
WIRE 1040 252 760 252
WIRE 760 252 760 300
WIRE 1040 316 760 316
WIRE 760 316 760 364
WIRE 792 332 904 332
FLAG 220 316 in
FLAG 904 332 out
FLAG 728 348 0
FLAG 220 396 0
FLAG 1040 332 0
FLAG 1040 396 0
SYMBOL voltage 220 300 R0
SYMATTR InstName Vin
SYMATTR Value AC 1
SYMBOL res 360 300 M90
SYMATTR InstName Rin
SYMATTR Value 1k
SYMBOL opamp2 760 268 R0
SYMATTR InstName XU1
SYMATTR Value opamp2
SYMBOL res 620 220 R0
SYMATTR InstName Rf
SYMATTR Value 10k
SYMBOL voltage 1040 236 R0
SYMATTR InstName VCC
SYMATTR Value 10
SYMBOL voltage 1040 300 R0
SYMATTR InstName VEE
SYMATTR Value -10
TEXT 48 1000 Left 2 !.ac dec 30 10 1e6
TEXT 48 1024 Left 2 !.op
