Version 4
SHEET 1 1900 1200
WIRE 128 320 336 320
WIRE 416 320 736 320
WIRE 736 320 736 272
WIRE 736 272 736 176
WIRE 736 176 672 176
WIRE 800 288 800 176
WIRE 800 176 768 176
WIRE 1184 256 768 256
WIRE 1184 320 768 320
WIRE 800 288 912 288
FLAG 128 320 in
FLAG 912 288 out
FLAG 736 304 0
FLAG 128 400 0
FLAG 1184 336 0
FLAG 1184 400 0
SYMBOL voltage 128 304 R0
SYMATTR InstName Vin
SYMATTR Value AC 1
SYMBOL res 320 304 M90
SYMATTR InstName Rin
SYMATTR Value 1k
SYMBOL UniversalOpAmp2 768 288 R0
SYMATTR InstName U1
SYMATTR Value UniversalOpamp2
SYMBOL res 672 160 M90
SYMATTR InstName Rf
SYMATTR Value 10k
SYMBOL voltage 1184 240 R0
SYMATTR InstName VCC
SYMATTR Value 10
SYMBOL voltage 1184 304 R0
SYMATTR InstName VEE
SYMATTR Value -10
TEXT 48 496 Left 2 !.ac dec 30 10 1e6
TEXT 48 512 Left 2 !.op
