Version 4
SHEET 1 1900 1300
WIRE 220 316 728 316
WIRE 636 236 636 284
WIRE 728 284 636 284
WIRE 792 300 792 236
WIRE 792 236 716 236
WIRE 1040 268 760 268
WIRE 1040 332 760 332
WIRE 792 300 904 300
FLAG 220 316 in
FLAG 904 300 out
FLAG 220 396 0
FLAG 636 364 0
FLAG 1040 348 0
FLAG 1040 412 0
SYMBOL voltage 220 300 R0
SYMATTR InstName V1
SYMATTR Value SINE(0 0.1 1k) AC 1
SYMBOL UniversalOpAmp2 760 300 R0
SYMATTR InstName U1
SYMATTR Value UniversalOpamp2
SYMBOL res 620 268 R0
SYMATTR InstName R2
SYMATTR Value 1k
SYMBOL res 620 220 M90
SYMATTR InstName R1
SYMATTR Value 10k
SYMBOL voltage 1040 252 R0
SYMATTR InstName V2
SYMATTR Value 10
SYMBOL voltage 1040 316 R0
SYMATTR InstName V3
SYMATTR Value -10
TEXT 48 1120 Left 2 !.tran 0 10m
TEXT 48 1144 Left 2 !.op
