Version 4
SHEET 1 1600 1100
WIRE 180 236 588 236
WIRE 588 204 536 204
WIRE 588 204 604 204
WIRE 652 220 652 204
WIRE 652 204 684 204
WIRE 860 136 620 136
WIRE 620 136 620 188
WIRE 860 316 620 316
WIRE 620 316 620 252
FLAG 180 236 in
FLAG 652 220 out
FLAG 180 316 0
FLAG 536 284 0
FLAG 860 216 0
FLAG 860 396 0
SYMBOL voltage 180 220 R0
SYMATTR InstName V1
SYMATTR Value SINE(0 0.1 1k) AC 1
SYMBOL UniversalOpAmp2 620 220 R0
SYMATTR InstName U1
SYMATTR Value UniversalOpamp2
SYMBOL res 588 188 M90
SYMATTR InstName R1
SYMATTR Value 10k
SYMBOL res 520 188 R0
SYMATTR InstName R2
SYMATTR Value 1k
SYMBOL voltage 860 120 R0
SYMATTR InstName V2
SYMATTR Value 10
SYMBOL voltage 860 300 R0
SYMATTR InstName V3
SYMATTR Value -10
TEXT 48 980 Left 2 !.tran 0 10m
TEXT 48 1004 Left 2 !.op
