Version 4
SHEET 1 2000 1300
WIRE 220 336 828 336
WIRE 828 336 828 316
WIRE 828 284 716 284
WIRE 716 284 716 356
WIRE 828 284 828 196
WIRE 828 196 776 196
WIRE 892 300 892 196
WIRE 892 196 856 196
WIRE 1280 268 860 268
WIRE 1280 332 860 332
WIRE 892 300 1012 300
FLAG 220 336 in
FLAG 1012 300 out
FLAG 220 416 0
FLAG 716 436 0
FLAG 1280 348 0
FLAG 1280 412 0
SYMBOL voltage 220 320 R0
SYMATTR InstName V1
SYMATTR Value SINE(0 0.1 1k) AC 1
SYMBOL UniversalOpAmp2 860 300 R0
SYMATTR InstName U1
SYMATTR Value UniversalOpamp2
SYMBOL res 700 340 R0
SYMATTR InstName R2
SYMATTR Value 1k
SYMBOL res 760 180 M90
SYMATTR InstName R1
SYMATTR Value 10k
SYMBOL voltage 1280 252 R0
SYMATTR InstName V2
SYMATTR Value 10
SYMBOL voltage 1280 316 R0
SYMATTR InstName V3
SYMATTR Value -10
TEXT 48 1120 Left 2 !.tran 0 10m
TEXT 48 1144 Left 2 !.op
