Version 4
SHEET 1 1200 900
WIRE 120 156 240 156
WIRE 304 156 376 156
FLAG 120 156 in
FLAG 304 156 out
FLAG 120 236 0
FLAG 376 236 0
SYMBOL voltage 120 140 R0
SYMATTR InstName V1
SYMATTR Value AC 1
SYMBOL cap 240 140 M90
SYMATTR InstName C1
SYMATTR Value 100n
SYMBOL res 360 140 R0
SYMATTR InstName R1
SYMATTR Value 1k
TEXT 48 760 Left 2 !.ac dec 30 10 1e6
TEXT 48 784 Left 2 !.op
