Version 4
SHEET 1 1000 700
WIRE 120 156 296 156
FLAG 120 156 vin
FLAG 296 236 vout
FLAG 120 236 0
FLAG 296 316 0
SYMBOL voltage 120 140 R0
SYMATTR InstName V1
SYMATTR Value 12
SYMBOL res 280 140 R0
SYMATTR InstName R1
SYMATTR Value 10k
SYMBOL res 280 220 R0
SYMATTR InstName R2
SYMATTR Value 10k
TEXT 48 560 Left 2 !.op
