Version 4
SHEET 1 1000 700
WIRE 120 176 336 176
WIRE 336 256 336 276
WIRE 336 256 420 256
FLAG 120 176 vin
FLAG 420 256 vout
FLAG 120 256 0
FLAG 336 356 0
SYMBOL voltage 120 160 R0
SYMATTR InstName V1
SYMATTR Value 12
SYMBOL res 320 160 R0
SYMATTR InstName R1
SYMATTR Value 10k
SYMBOL res 320 260 R0
SYMATTR InstName R2
SYMATTR Value 10k
TEXT 48 560 Left 2 !.op
