Version 4
SHEET 1 1400 900
WIRE 120 156 256 156
WIRE 336 156 376 156
WIRE 456 156 536 156
FLAG 120 156 in
FLAG 336 156 n1
FLAG 456 156 out
FLAG 120 236 0
FLAG 536 220 0
SYMBOL voltage 120 140 R0
SYMATTR InstName V1
SYMATTR Value AC 1
SYMBOL res 240 140 M90
SYMATTR InstName R1
SYMATTR Value 100
SYMBOL ind 360 140 M90
SYMATTR InstName L1
SYMATTR Value 1m
SYMBOL cap 520 156 R0
SYMATTR InstName C1
SYMATTR Value 100n
TEXT 48 760 Left 2 !.ac dec 30 10 1e6
TEXT 48 784 Left 2 !.op
