Version 4
SHEET 1 1300 900
WIRE 120 156 256 156
WIRE 336 156 436 156
WIRE 336 156 516 156
FLAG 120 156 in
FLAG 336 156 out
FLAG 120 236 0
FLAG 436 220 0
FLAG 516 236 0
SYMBOL voltage 120 140 R0
SYMATTR InstName V1
SYMATTR Value DC 12
SYMBOL res 240 140 M90
SYMATTR InstName R1
SYMATTR Value 220
SYMBOL diode 420 156 R0
SYMATTR InstName D1
SYMATTR Value DZEN
SYMBOL res 500 140 R0
SYMATTR InstName Rload
SYMATTR Value 1k
TEXT 48 760 Left 2 !.model DZEN D(BV=5.1 IBV=1m)
TEXT 48 784 Left 2 !.dc V1 6 15 0.1
TEXT 48 808 Left 2 !.op
