Version 4
SHEET 1 1500 950
WIRE 140 236 336 236
WIRE 416 236 576 236
WIRE 416 236 716 236
WIRE 416 236 500 236
FLAG 140 236 in
FLAG 500 236 out
FLAG 140 316 0
FLAG 576 300 0
FLAG 716 316 0
SYMBOL voltage 140 220 R0
SYMATTR InstName V1
SYMATTR Value DC 12
SYMBOL res 320 220 M90
SYMATTR InstName R1
SYMATTR Value 220
SYMBOL diode 560 236 R0
SYMATTR InstName D1
SYMATTR Value DZEN
SYMBOL res 700 220 R0
SYMATTR InstName Rload
SYMATTR Value 1k
TEXT 48 800 Left 2 !.model DZEN D(BV=5.1 IBV=1m)
TEXT 48 824 Left 2 !.dc V1 6 15 0.1
TEXT 48 848 Left 2 !.op
