Version 4
SHEET 1 1500 950
WIRE 112 176 304 176
WIRE 384 176 544 176
WIRE 384 176 688 176
WIRE 384 176 464 176
FLAG 112 176 in
FLAG 464 176 out
FLAG 112 256 0
FLAG 544 240 0
FLAG 688 256 0
SYMBOL voltage 112 160 R0
SYMATTR InstName V1
SYMATTR Value DC 12
SYMBOL res 288 160 M90
SYMATTR InstName R1
SYMATTR Value 220
SYMBOL diode 528 176 R0
SYMATTR InstName D1
SYMATTR Value DZEN
SYMBOL res 672 160 R0
SYMATTR InstName Rload
SYMATTR Value 1k
TEXT 48 352 Left 2 !.model DZEN D(BV=5.1 IBV=1m)
TEXT 48 384 Left 2 !.dc V1 6 15 0.1
TEXT 48 400 Left 2 !.op
