Version 4
SHEET 1 1200 900
WIRE 120 80 80 80
WIRE 280 80 80 80
WIRE 240 80 240 160
WIRE 280 160 240 160
WIRE 440 80 240 80
FLAG 80 80 in
FLAG 120 160 0
FLAG 440 160 0
FLAG 240 80 out
SYMBOL voltage 120 80 R0
SYMATTR InstName V1
SYMATTR Value AC 1
SYMBOL res 280 80 R0
SYMATTR InstName R1
SYMATTR Value 1k
SYMBOL cap 440 80 R0
SYMATTR InstName C1
SYMATTR Value 1u
TEXT 48 760 Left 2 !.ac dec 10 10 10k
