Version 4
SHEET 1 1200 900
WIRE 120 80 280 80
WIRE 360 80 440 80
FLAG 120 80 in
FLAG 120 160 0
FLAG 440 160 0
FLAG 360 80 out
SYMBOL voltage 120 80 R0
SYMATTR InstName V1
SYMATTR Value AC 1
SYMBOL res 280 80 M90
SYMATTR InstName R1
SYMATTR Value 1k
SYMBOL cap 440 80 R0
SYMATTR InstName C1
SYMATTR Value 1u
TEXT 48 760 Left 2 !.ac dec 10 10 10k
