Version 4
SHEET 1 880 680
FLAG 120 160 in
FLAG 120 240 out
SYMBOL res 120 160 R0
SYMATTR InstName R1
SYMATTR Value 1k
TEXT 48 560 Left 2 !.op
